resultados/_temp_alt1_1p10/LineSummary.csv
line,maxCurrentA,normAmps,maxLoadingPct,meanLoadingPct,overloadHours
rbt_1607347,95.19482578416566,124.95,76.18633516139708,26.321034793458306,0
sbt_7584,95.19483567016427,163.8,58.11650529314058,20.0782268592279,0
sbt_22840,95.19483114496485,163.8,58.11650253050357,20.078226748429742,0
rbt_630758,31.216438361916108,76.65,40.725946982278025,17.430601822942943,0
rbt_637576,24.790259570382315,61.95,40.01656104985039,14.611991054333638,0
rbt_632607,44.86706197894392,124.95,35.90801278827044,16.889556817580612,0
rbt_606147,25.457868214862053,76.65,33.213135309669994,12.3580468828617,0
rbt_1130761,27.90534921676423,90.3,30.902933794866254,14.543075831907727,0
rbt_637918,17.77713755015604,61.95,28.695944390889494,11.278629803178097,0
rbt_605836,23.688531005296706,90.3,26.23314618526767,12.354995865091377,0
rbt_637360,16.192801514057678,61.95,26.138501233345725,12.280373672188475,0
rbt_1607350,22.032795379953114,90.3,24.399551915784183,8.766639906463729,0
rbt_626476,13.993923305587257,61.95,22.589061025968128,10.62802255638283,0
rbt_606126,13.575505043378149,61.95,21.913648173330344,7.792045006269721,0
rbt_1633671,13.228821274712864,61.95,21.354029499132952,10.055605267468435,0
rbt_3405844,18.966746613031024,90.3,21.004149073124058,7.240325493350281,0
rbt_606143,14.885087585950027,76.65,19.419553275864352,6.866124880934854,0
rbt_1627323,13.773034491878374,76.65,17.96873384459018,8.45375152828576,0
sbt_34378,22.611817907157242,128.1,17.651692355314008,8.661018719711047,0
sbt_34379,22.54122605415798,128.1,17.596585522371573,8.536684067044254,0
rbt_635862,10.78815387208554,61.95,17.414291964625566,5.9745753828310555,0
rbt_3435739,13.327628078043407,76.65,17.387642632802876,8.201441483959456,0
rbt_637397,10.741276317705195,61.95,17.33862198176787,8.149243643125649,0
rbt_605816,10.231590103729475,61.95,16.515883944680347,6.214196269243008,0
sbt_24791,25.457889521669777,163.8,15.542057095036494,5.782932833415857,0
sbt_3174,25.45788064368465,163.8,15.542051675021154,5.782934450398891,0
rbt_609688,11.216208745811295,76.65,14.633018585533325,5.328128636724566,0
smt_29422,23.634114008634754,163.8,14.428641030912548,8.78676751760908,0
smt_19119,23.63318574850279,163.8,14.428074327535278,8.787228362036945,0
smt_17184,23.632043222654964,163.8,14.427376814807669,8.78676302984525,0
rbt_1638954,7.865137133302305,61.95,12.695943718002106,5.967718866097907,0
rbt_1607265,11.05117526268001,90.3,12.238289327441871,5.7594910410960125,0
rbt_606139,9.340418350933307,76.65,12.185803458490941,4.362311672398795,0
rbt_623004,7.2774138887167386,61.95,11.747237915604098,4.576201079507153,0
sbt_11363,18.116005462099547,163.8,11.059832394444168,4.122559889525635,0
sbt_9361,23.688531065885776,216.3,10.951701833511684,5.157910865699436,0
rbt_606121,6.382966153083315,61.95,10.303415904896392,4.841124462017647,0
rbt_1605991,6.104684483286849,61.95,9.85421224097958,4.632859521378839,0
rbt_1607280,6.055863446805698,61.95,9.775405079589504,4.594051126585501,0
sbt_34393,12.184907983154112,128.1,9.51202808989392,6.25348955366805,0
rbt_635543,5.820728301568883,61.95,9.39584875152362,3.7317060563147706,0
rbt_606114,8.279925423452655,90.3,9.169352628408255,4.309997254465561,0
rbt_627337,8.06012133367903,90.3,8.925937246599148,4.197309466186722,0
rbt_1621994,7.906338859781809,90.3,8.755635503634341,4.114610277767194,0
rbt_626678,7.725718643859075,90.3,8.555613116123006,4.023551608650105,0
rbt_606150,5.257383425251836,61.95,8.486494633174877,3.9868341327349417,0
rbt_1607272,7.568307740737012,90.3,8.381293179110756,3.9435477267685553,0
rbt_623007,5.1707443769662875,61.95,8.34664144788747,3.9216749523984546,0
sbt_22748,17.90214760410571,216.3,8.276536109156593,3.8943665238136003,0
sbt_7427,17.902139396667803,216.3,8.276532314686918,3.894362603687061,0
sbt_34383,10.590319387967414,128.1,8.267228249779404,4.869976974605981,0
sbt_34392,10.59031624882674,128.1,8.267225799240235,5.182938872379524,0
sbt_34384,10.576648196334876,128.1,8.256555969035812,3.988217954208995,0
smt_34713,23.6193854108388,286.65,8.239799550266458,5.018081706249475,0
smt_34700,23.61923699626042,286.65,8.23974777472891,5.018047620766482,0
smt_34701,23.618885431486405,286.65,8.239625128723672,5.017966899225412,0
smt_34715,23.618584794377664,286.65,8.239520249216001,5.017897893529741,0
smt_34702,23.618287025355844,286.65,8.239416370261939,5.017829566650988,0
smt_34703,23.617879149309296,286.65,8.239274079647409,5.017736007405717,0
smt_34704,23.617388819352506,286.65,8.23910302436857,5.0176235853339906,0
smt_34716,23.61708236254352,286.65,8.238996114614869,5.017553349505563,0
smt_34705,23.616774244775772,286.65,8.238888625423261,5.017482754736762,0
smt_34717,23.61640709726171,286.65,8.238760543262416,5.01739866378487,0
smt_34706,23.616035364465656,286.65,8.238630861491595,5.017313554210086,0
smt_34707,23.61559768132921,286.65,8.23847817245045,5.017213385799936,0
smt_34708,23.615189891785985,286.65,8.238335912013252,5.017120098468836,0
smt_34709,23.61466364360865,286.65,8.238152326394088,5.016999768619788,0
smt_34718,23.61437048687865,286.65,8.23805005647258,5.016932764179631,0
smt_34710,23.614083803571503,286.65,8.237950044853132,5.016867258372826,0
smt_34719,23.61378396475962,286.65,8.237845443837301,5.016798766861986,0
smt_34711,23.613485095379612,286.65,8.237741181015041,5.016730517349425,0
smt_34720,23.613144331865016,286.65,8.23762230311007,5.016652725981234,0
smt_34712,23.612829962540683,286.65,8.237512633016111,5.016580983725741,0
smt_34721,23.612604384966314,286.65,8.23743393858933,5.016529519402591,0
smt_34714,23.612595113008318,286.65,8.23743070399732,5.016527403172755,0
rbt_1630759,6.258727513579918,76.65,8.1653326987344,3.840807014130908,0
rbt_606122,5.054207226125735,61.95,8.158526595844608,3.8347236057098786,0
rbt_1229546,7.3366938403766655,90.3,8.124799380262088,3.8209229339705697,0
rbt_1638606,5.004861090329444,61.95,8.07887181651242,3.7986310273763375,0
rbt_605905,7.160236620225308,90.3,7.929387176329245,3.7275130409574206,0
rbt_1607283,7.089068994308964,90.3,7.850574744528199,3.6931146135506503,0
smt_31417,25.23575993933971,327.6,7.703223424706872,4.714389942034445,0
smt_31416,25.23571354562324,327.6,7.703209263010757,4.714380615244357,0
smt_31411,25.23569586247716,327.6,7.703203865225018,4.714377061018509,0
smt_31412,25.235675854928267,327.6,7.7031977579146105,4.714373038939466,0
smt_31413,25.23555721830719,327.6,7.703161544049814,4.714349192004287,0
smt_31414,25.235468064836393,327.6,7.703134329925638,4.714331273167693,0
smt_31415,25.235242159462437,327.6,7.70306537224128,4.714285875029151,0
smt_4387,25.234870661390566,327.6,7.702951972341442,4.714211238540876,0
smt_4863,25.234442019077445,327.6,7.702821129144518,4.714125152462587,0
smt_4693,25.23408241607972,327.6,7.702711360219694,4.714052957487767,0
smt_4591,25.233753787248578,327.6,7.702611046168674,4.713987001433468,0
smt_17964,25.233723024928057,327.6,7.702601655960945,4.705631441169186,0
smt_4627,25.23340503756667,327.6,7.702504590221815,4.713917028478902,0
smt_6826,25.233275859779216,327.6,7.702465158662763,4.705540816462074,0
smt_4527,25.23312608858632,327.6,7.702419440960415,4.713861076188565,0
smt_7012,25.232759690079078,327.6,7.702307597704236,4.705436252057657,0
smt_23134,25.232672617768227,327.6,7.70228101885477,4.713770147891879,0
smt_22791,25.232297155494127,327.6,7.7021664088809905,4.705342594016591,0
smt_18545,25.232266038139613,327.6,7.702156910299027,4.713688653695144,0
smt_10381,25.23183528633454,327.6,7.702025423179042,4.713602347093659,0
smt_7020,25.231757221192243,327.6,7.702001593770526,4.70523331252059,0
smt_18806,25.231617681700815,327.6,7.7019589992981725,4.713558760014809,0
smt_24122,25.231546857345684,327.6,7.70193738014215,4.713544576616424,0
smt_6842,25.231341766816666,327.6,7.701874776195562,4.70514926146674,0
smt_6830,25.230711512256036,327.6,7.7016823907985446,4.705021813772453,0
smt_29390,25.230000901758032,327.6,7.701465476727115,4.704789614668259,0
smt_31407,25.229953495073534,327.6,7.701451005822202,4.70486862586686,0
smt_31408,25.229489278984815,327.6,7.701309303719419,4.712918206716451,0
smt_17776,25.22939107033879,327.6,7.7012793255002405,4.704665154573404,0
smt_10747,25.22877051270867,327.6,7.701089900094221,4.704538574585424,0
smt_18202,25.228231624862705,327.6,7.700925404414745,4.70442871009041,0
smt_17794,25.22773156613325,327.6,7.700772761334935,4.704326808876133,0
smt_29420,25.227422587445027,327.6,7.70067844549604,4.704263868329197,0
smt_22739,25.22724202046312,327.6,7.700623327369695,4.704227093929025,0
smt_17795,25.226646650587227,327.6,7.700441590533341,4.7041058823348445,0
smt_29389,25.225982454524303,327.6,7.700238844482388,4.703970734210157,0
smt_19163,25.22541013836077,327.6,7.700064144798768,4.703854345613748,0
smt_17961,25.22504537911804,327.6,7.699952801928584,4.70378019763139,0
smt_29388,25.224624697267885,327.6,7.6998243886654105,4.703694711708726,0
smt_17962,25.224107663474665,327.6,7.699666563942205,4.703589690197727,0
rbt_1107340,6.787592459427267,90.3,7.516713687073386,3.537179151430635,0
rbt_605822,6.78696487771881,90.3,7.516018690718505,3.537000504908256,0
rbt_1626486,6.78499913089349,90.3,7.513841783935204,3.5308977608422407,0
rbt_1607287,6.780417130301907,90.3,7.508767586159365,3.5318777489662665,0
rbt_606132,4.534403299428893,61.95,7.319456496253257,3.4390436084777587,0
rbt_623433,6.566369419177347,90.3,7.271726931536375,3.421344667240552,0
smt_6447,23.690999942369455,327.6,7.2316849640932395,4.406244058605104,0
smt_6627,23.690621139720363,327.6,7.231569334468975,4.4061693936608455,0
smt_24630,23.69001723719839,327.6,7.231384993039801,4.406050419197369,0
smt_24629,23.689644613427756,327.6,7.231271249520072,4.405977045241647,0
smt_24628,23.689147820658153,327.6,7.231119603375504,4.405879264177005,0
smt_24627,23.688778987565243,327.6,7.231007016961306,4.405806700696006,0
smt_6957,23.688433957266025,327.6,7.230901696357151,4.4057388447917845,0
smt_6431,23.68800456467027,327.6,7.230770624136223,4.40565443092704,0
smt_24626,23.687647227259287,327.6,7.230661546782444,4.405584210426809,0
smt_12228,23.687258706303144,327.6,7.230542950641985,4.405507891104905,0
rbt_626698,6.521578937282975,90.3,7.222125068973393,3.3944030959114904,0
smt_6510,23.64120693600056,327.6,7.216485633699804,4.394788395821592,0
smt_19223,23.640682814886492,327.6,7.216325645569747,4.394684256152316,0
smt_22843,23.640236698130696,327.6,7.216189468293862,4.394595658995985,0
smt_6737,23.63984758769509,327.6,7.216070692214618,4.394518415733801,0
smt_24665,23.639340540016278,327.6,7.215915915755884,4.394417806168652,0
smt_24635,23.6388167171293,327.6,7.215756018659736,4.394313922309568,0
smt_24637,23.638274704492485,327.6,7.2155905691369,4.39420648916919,0
smt_24636,23.637744667759723,327.6,7.21542877526243,4.39410148692694,0
smt_19174,23.63726208791741,327.6,7.215281467618256,4.394005935189724,0
smt_6686,23.636692794383926,327.6,7.215107690593384,4.393893274203344,0
smt_19173,23.63573547635116,327.6,7.214815468971661,4.393703971612147,0
smt_19172,23.63541199118644,327.6,7.214716725026385,4.393640046468115,0
smt_6544,23.63505901345762,327.6,7.214608978466917,4.393570317184526,0
smt_6535,23.634537286738414,327.6,7.214449721226622,4.3934672981521485,0
smt_24634,23.633396782335346,327.6,7.214101581909446,4.39324228666525,0
smt_24633,23.632989796405624,327.6,7.2139773493301655,4.393162054813567,0
smt_24511,23.63267369339873,327.6,7.21388085879082,4.393509872700722,0
smt_24632,23.63255199460783,327.6,7.213843710197749,4.393075785208408,0
smt_1873,23.63212110675758,327.6,7.213712181549932,4.392990915669456,0
smt_29446,23.632029450870743,327.6,7.213684203562496,4.393378712259104,0
smt_24631,23.63173501186849,327.6,7.213594325967182,4.392914900479194,0
smt_32671,23.63160456744602,327.6,7.213554507767404,4.393292256777374,0
smt_6527,23.631333895508025,327.6,7.213471885075709,4.392835959597344,0
smt_6389,23.63113556576065,327.6,7.213411344859782,4.393196866357603,0
smt_24510,23.631121161802827,327.6,7.21340694804726,4.393193937307397,0
smt_24509,23.630622527303476,327.6,7.213254739714126,4.3930925700977985,0
smt_24508,23.63018544592379,327.6,7.213121320489558,4.393003757262985,0
smt_6426,23.629791427220372,327.6,7.213001046160064,4.392923727634101,0
smt_6420,23.629389711485288,327.6,7.212878422309306,4.392842166895898,0
smt_6140,23.628955622081428,327.6,7.212745916386272,4.392754069914416,0
smt_6653,23.628541576303416,327.6,7.212619528786146,4.392670076201436,0
smt_6650,23.628133606610856,327.6,7.212494995912959,4.39258734890238,0
smt_29445,23.627733416836833,327.6,7.212372837862281,4.392506231853936,0
smt_24507,23.62732173222464,327.6,7.212247171008741,4.392422818588833,0
smt_24506,23.62691145139199,327.6,7.212121932659338,4.392339723789284,0
smt_24505,23.626488068756935,327.6,7.211992694980748,4.392254011076049,0
smt_24459,23.626124794113803,327.6,7.211881805285043,4.392180495939997,0
smt_24458,23.625687230472586,327.6,7.211748238849995,4.392091982465912,0
smt_24457,23.62524693184881,327.6,7.211613837560686,4.392002954771166,0
smt_24456,23.624842063488636,327.6,7.211490251370158,4.391921125537222,0
smt_24455,23.624426429111896,327.6,7.211363378849785,4.3918371548006485,0
smt_24454,23.62402767917941,327.6,7.211241660311174,4.391756628021635,0
smt_19165,23.623587395446226,327.6,7.211107263567223,4.391667750874235,0
smt_17113,23.623127044962747,327.6,7.21096674144162,4.3915748648358806,0
smt_6993,23.622117073175996,327.6,7.21065844724542,4.391371230320591,0
smt_24453,23.62150425131472,327.6,7.210471383185202,4.391247771125291,0
smt_24452,23.62102993178486,327.6,7.210326597003926,4.39115226663811,0
smt_24451,23.620614224229524,327.6,7.210199702145764,4.391068601007842,0
smt_24450,23.620221539268353,327.6,7.210079834941499,4.390989600957581,0
smt_6394,23.619791939251243,327.6,7.209948699405142,4.3909032099981244,0
smt_24668,23.612584395207225,327.6,7.207748594385599,4.38945933881601,0
smt_29393,23.61241619742789,327.6,7.207697251962116,4.389425768884329,0
smt_19218,23.61100256547611,327.6,7.207265740377322,4.389143853111656,0
smt_6502,23.61051064800125,327.6,7.207115582417963,4.389045846114772,0
smt_24667,23.610253578291882,327.6,7.207037111810709,4.388994648309272,0
smt_6683,23.609562394218756,327.6,7.206826127661402,4.388857058642572,0
smt_19220,23.609001559460268,327.6,7.206654932680179,4.388745487507438,0
smt_22844,23.608611520081475,327.6,7.2065358730407425,4.388667931362847,0
smt_6687,23.60818293692396,327.6,7.206405047901086,4.388582746451223,0
smt_24666,23.607861628545862,327.6,7.206306968420592,4.388518907647385,0
rbt_1607252,5.495008836198129,76.65,7.1689612996714,3.3713474941761485,0
rbt_637356,4.294868727064115,61.95,6.932798590902525,3.25888140344817,0
rbt_631391,6.181705907505596,90.3,6.845742976196674,5.184563729201969,0
rbt_605855,5.09702034091881,76.65,6.649732995327867,3.1278251492041367,0
rbt_1607255,5.953316212545566,90.3,6.592819725964081,3.099124481989021,0
rbt_636933,4.956294208040035,76.65,6.46613725771694,3.0425110311605157,0
rbt_605910,3.8934221985050597,61.95,6.284781595649813,2.952306240568754,0
rbt_627343,5.637212095648234,90.3,6.24275979584522,2.9334512851501984,0
sbt_28279,13.228833463369591,216.3,6.115965540161623,2.880003426399886,0
sbt_20214,13.22882602239653,216.3,6.115962100044628,2.8800037143414485,0
rbt_1607304,3.7874851102643246,61.95,6.1137774176986674,2.8712939694472364,0
rbt_1607305,5.350681047049918,90.3,5.925449664507108,2.785783844289233,0
rbt_1607285,3.63485090578916,61.95,5.867394521047877,2.754966613934114,0
rbt_606103,4.416408737899137,76.65,5.761785698498548,2.708413157532611,0
rbt_3405846,4.402010796243078,76.65,5.743001691119476,2.7005758011109404,0
rbt_606109,3.506211331689156,61.95,5.659743876818654,2.658924886180318,0
rbt_605825,5.10908934196143,90.3,5.6579062480193025,2.6604727689492034,0
sbt_4580,9.189860777812068,163.8,5.610415615269883,2.639868315734203,0
rbt_1631852,5.057503643719264,90.3,5.6007792289249885,2.6325558423258273,0
rbt_605993,5.028189452389078,90.3,5.568316115602523,2.6168987470116396,0
rbt_621999,4.991476340504619,90.3,5.52765929181021,2.5982628144947957,0
rbt_630753,4.98829865110577,90.3,5.524140255931085,2.597825390744599,0
sbt_6049,9.014189033797717,163.8,5.503167908301414,2.589640169015686,0
rbt_607384,3.302274588019369,61.95,5.330548164680176,2.5045439702713406,0
rbt_1607278,4.079230901602136,76.65,5.321892891848839,2.5006515031728602,0
smt_6110,17.41320819884954,327.6,5.3153871180859396,3.047794508668081,0
rbt_1628760,4.790532623123816,90.3,5.30513025816591,2.4926784660986514,0
rbt_3433894,4.763307667352094,90.3,5.274980805484046,2.4800111884710856,0
rbt_1607357,4.018398995693126,76.65,5.242529674746413,2.463971462455073,0
smt_24515,16.882372573653885,327.6,5.15334938145723,3.013370063708401,0
smt_6552,16.88198510227956,327.6,5.153231105701941,3.0132798297957026,0
smt_6549,16.88147314783071,327.6,5.153074831450156,3.01316066546679,0
smt_23959,16.881026108767745,327.6,5.152938372639727,3.013056666183529,0
smt_22744,16.880489817951382,327.6,5.152774669704329,3.012931971074621,0
smt_19175,16.880043790841814,327.6,5.152638519792983,3.0128283199066406,0
smt_19177,16.8795359267431,327.6,5.1524834941218245,3.0127103608563517,0
smt_19176,16.879002178612257,327.6,5.152320567341959,3.0125864613912188,0
smt_19164,16.87876978130362,327.6,5.152249627992558,3.0125325377476915,0
smt_32311,16.878369895601857,327.6,5.152127562760029,3.0124397839165247,0
smt_39119,16.877890253183413,327.6,5.151981151765388,3.0123285844512346,0
smt_32312,16.877867733280663,327.6,5.1519742775582,3.0123233653356305,0
smt_32310,16.87784937135104,327.6,5.151968672573577,3.0123191092019286,0
smt_32309,16.87740554034288,327.6,5.151833193022857,3.012216270145135,0
smt_32314,16.877202626301777,327.6,5.15177125344987,3.0121692703618663,0
smt_32313,16.877187217794088,327.6,5.151766549998195,3.012165701596173,0
smt_6802,16.877010532664105,327.6,5.151712616808334,3.06665255393505,0
smt_24514,16.87645630994706,327.6,5.1515434401547795,3.066524963385754,0
smt_24513,16.875880740868414,327.6,5.15136774751783,3.066392539265968,0
smt_19166,16.87542910854844,327.6,5.1512298866142965,3.066288687499545,0
smt_6414,16.87498825447035,327.6,5.151095315772389,3.0661873630503784,0
smt_18852,16.87454207852403,327.6,5.15095912042858,3.0660848646528476,0
smt_6403,16.87404701796269,327.6,5.150808003041113,3.0659711941100354,0
smt_1832,16.87361665467665,327.6,5.150676634516682,3.065872428214682,0
smt_1831,16.873197383225115,327.6,5.150548651778117,3.0657762521541883,0
smt_1829,16.872374243937188,327.6,5.150297388259214,3.0655875608152567,0
smt_1828,16.871778398923873,327.6,5.150115506387018,3.0654510783670026,0
smt_6350,16.785066970918507,327.6,5.123646816519691,2.9974455109474953,0
smt_24517,16.782888186553123,327.6,5.122981741927083,2.9971636645701447,0
smt_24520,16.782220463720233,327.6,5.12277791932852,2.997008061429654,0
smt_19116,16.781905173706612,327.6,5.12268167695562,2.9969346276189586,0
rbt_605806,4.389459507237603,90.3,4.860973983651831,2.2843950264742285,0
rbt_622714,4.323023647613576,90.3,4.78740160311581,2.25117346045262,0
sbt_25907,10.231614528253797,216.3,4.7302887324335625,1.7797937501020715,0
sbt_21361,10.231607813964963,216.3,4.730285628277837,1.7797938511595859,0
sbt_20771,10.231602452353346,216.3,4.730283149492994,1.7797960019442638,0
rbt_1607258,3.6139141166546906,76.65,4.71482598389392,2.217238819057609,0
smt_6066,7.68243813908257,163.8,4.6901331740430825,2.694181117431054,0
smt_6062,7.682033230748017,163.8,4.689885977257641,2.6941077930243815,0
smt_6719,7.681586031622699,163.8,4.68961296191862,2.6940277092088905,0
smt_6176,7.681081763839107,163.8,4.689305106128881,2.693933661690217,0
smt_6144,7.680610687264067,163.8,4.689017513592226,2.693848918337294,0
smt_6227,7.680111173871729,163.8,4.6887125603612505,2.693757478243864,0
smt_19063,7.67962844465314,163.8,4.688417853878596,2.6936701495351856,0
smt_6092,7.679149885940785,163.8,4.688125693492543,2.6935812937281383,0
smt_29474,7.678735209668279,163.8,4.687872533375017,2.6935095500333186,0
smt_29473,7.678270919051351,163.8,4.687589083669933,2.6934271002080616,0
smt_19115,7.677806344726399,163.8,4.6873054607609275,2.6933402945359894,0
smt_24512,7.677439989481741,163.8,4.687081800660403,2.6932589515103165,0
rbt_627328,4.219893339706534,90.3,4.673193067227612,2.1994718292537927,0
sbt_5830,7.58175913881471,163.8,4.628668582914964,2.1778689427203872,0
smt_37840,7.578269570135464,163.8,4.626538199105899,2.6678038580674683,0
smt_6474,7.577938958321863,163.8,4.626336360391858,2.6677438418369985,0
smt_19061,7.577529348717224,163.8,4.626086293478158,2.6676655086878576,0
smt_29476,7.5771291083333905,163.8,4.625841946479481,2.6675933345115515,0
smt_6594,7.57664030693423,163.8,4.625543532926881,2.6675014038293585,0
smt_29475,7.576147360112115,163.8,4.625242588591035,2.667406152883526,0
smt_19011,7.575722377795599,163.8,4.62498313662735,2.6673295662711323,0
smt_19014,7.575235135160694,163.8,4.624685674701278,2.667238995294998,0
rbt_621168,3.5114079778532945,76.65,4.581093252254787,2.1532664129409453,0
rbt_605815,4.120599084282399,90.3,4.563232651475525,2.145953226074574,0
rbt_1107330,4.120097834828532,90.3,4.562677557949648,2.147334280201389,0
rbt_621171,2.819117363020432,61.95,4.550633354350979,2.1379412583002297,0
rbt_3422597,4.1021058390162874,90.3,4.542752867127672,2.1365205659098003,0
rbt_606127,2.798270819653084,61.95,4.516982759730563,2.1221679242657436,0
rbt_635966,2.7827513146725718,61.95,4.491931097130866,2.1106304609099182,0
rbt_1124041,4.047529249415439,90.3,4.482313675986091,2.108102360297733,0
rbt_605921,3.335224724506652,76.65,4.351239040452253,2.0453768428114856,0
sbt_14007,7.089068709807684,163.8,4.3278807752183655,2.0359476186143475,0
rbt_627336,3.871278469733307,90.3,4.287130088298237,2.0144023382093965,0
rbt_1627321,3.8566748443335586,90.3,4.270957745662856,2.0076108977473135,0
rbt_1607355,3.8406216015005477,90.3,4.253180068106919,1.9991293728217325,0
rbt_605902,2.6343320409766147,61.95,4.252351962835536,1.998261622399367,0
sbt_35173,5.3506806493865975,128.1,4.176956010450115,1.9637489464974074,0
rbt_1607358,3.1979639704056813,76.65,4.172164344951964,1.9612546157272295,0
sbt_21952,9.014188174041182,216.3,4.1674471447254655,1.9610862436158458,0
sbt_20840,6.786964854576278,163.8,4.143446187165005,1.9498848371139108,0
sbt_6273,6.7804168252336705,163.8,4.1394486112537665,1.9470606166339701,0
rbt_3405838,3.6840233635576958,90.3,4.07976009253344,1.9198226160049814,0
rbt_622273,2.3447056847026126,57.75,4.060096423727468,1.9111595168871196,0
rbt_1107341,2.511839206194175,61.95,4.054623415971227,1.9074491501528412,0
smt_6536,11.579619573610332,286.65,4.039637039459388,2.3886743201329117,0
smt_6703,11.579037303514324,286.65,4.039433910174194,2.388541374324676,0
smt_6514,11.578466271583558,286.65,4.039234701407137,2.388411162562944,0
smt_6984,11.578379103149143,286.65,4.039204292045751,2.38839130026942,0
smt_5854,11.577492152888658,286.65,4.038894872802603,2.388189420220639,0
smt_5855,11.57682755592077,286.65,4.038663023171384,2.3880384144424656,0
rbt_638617,2.501890659906714,61.95,4.038564422771128,1.8998056926264058,0
smt_5657,11.576282791001352,286.65,4.038472977848021,2.3879148052419032,0
smt_21743,11.575708422833946,286.65,4.038272605209819,2.3877846440979584,0
smt_22741,11.57511985226743,286.65,4.038067277958287,2.3876514404809335,0
smt_6098,11.574652214245525,286.65,4.037904138930935,2.387545733227682,0
smt_19120,11.574109877029509,286.65,4.037714940530092,2.3874232817958365,0
smt_22740,11.573573051561432,286.65,4.037527664943811,2.3873022243970268,0
smt_22738,11.559132539863365,286.65,4.032489984253747,2.3817648676153285,0
smt_6754,11.558643491376618,286.65,4.032319376025333,2.3816533585194684,0
smt_6567,11.55814631309586,286.65,4.032145931657373,2.381540121044084,0
smt_6746,11.557652042932796,286.65,4.031973501808057,2.3814276712963527,0
smt_6812,11.557166266150428,286.65,4.031804034938228,2.3813172757899985,0
rbt_605828,3.6396292680453497,90.3,4.0305971960635105,1.896833101002947,0
rbt_1607292,3.569993512749846,90.3,3.953481187984326,1.858870349039783,0
sbt_4118,11.216216259442634,286.65,3.9128610707980584,1.4247381731891868,0
rbt_1626490,3.5313218049597497,90.3,3.910655376478128,2.9619048939479673,0
rbt_1635060,2.422619952602332,61.95,3.910605250366961,1.838908271071073,0
sbt_37156,6.382965939874189,163.8,3.8968046030977948,1.8309379663765881,0
rbt_605867,3.51135052547239,90.3,3.8885387878985487,1.8285168301549524,0
sbt_4615,6.297219575265606,163.8,3.844456395156047,1.8099164237481287,0
sbt_3373,6.297218375234988,163.8,3.844455662536622,1.8099156285754432,0
sbt_20793,6.29721727344982,163.8,3.8444549898961045,1.809914904672703,0
sbt_4010,6.297215564943969,163.8,3.8444539468522403,1.80991379323455,0
sbt_28804,6.2972140129618,163.8,3.8444529993661782,1.8099127947004972,0
rbt_605812,3.429065290808348,90.3,3.7974144970192114,1.7872016015803567,0
rbt_632613,3.425899639766396,90.3,3.7939087926538164,1.7845042663452597,0
rbt_622713,3.408507440146384,90.3,3.7746483279583436,1.7737424506785324,0
rbt_606120,2.3273956722218854,61.95,3.756893740471163,1.76469141360836,0
sbt_26269,8.060120967675713,216.3,3.726361982281883,1.7522746514799643,0
rbt_1132019,3.3189388435519143,90.3,3.6754582985071034,1.7281791508196482,0
rbt_605863,3.302851406697056,90.3,3.6576427538173375,1.720282622069444,0
rbt_634166,2.7755439069088137,76.65,3.6210618485437878,1.7016109914619546,0
rbt_1138614,2.2284081299659997,61.95,3.5971075544245354,1.6913396758052528,0
smt_7052,5.857596935101791,163.8,3.576066504946148,1.9364234541145278,0
rbt_605803,3.2076167844040833,90.3,3.5521780558184757,1.6698467214454824,0
rbt_605834,3.184768612870581,90.3,3.5268755402774987,1.660412456069311,0
smt_29484,5.76131022280347,163.8,3.5172834083049263,1.7426079898868034,0
smt_22951,5.761296756659856,163.8,3.517275187216029,1.7425997118002252,0
rbt_605904,2.178705569211796,61.95,3.5168774321417207,1.651333182881289,0
smt_19381,5.759962491213904,163.8,3.5164606173467052,1.7417807117244202,0
smt_18804,5.759267858369218,163.8,3.516036543570951,1.7413552464903024,0
smt_19380,5.758471823563163,163.8,3.5155505638358746,1.7408684466161095,0
smt_5349,5.757834035167949,163.8,3.515161193631226,1.740479018464898,0
smt_18803,5.757186237598669,163.8,3.5147657128197,1.740084026538286,0
smt_13454,5.756524775366742,163.8,3.5143618897232853,1.739681274273116,0
smt_19377,5.755738487111546,163.8,3.513881860263459,1.7392032720442734,0
smt_29411,5.754749966377604,163.8,3.5132783677518944,1.7386034959792749,0
smt_8954,5.754142612590065,163.8,3.5129075778938126,1.7382356375544392,0
smt_5584,5.75343461815005,163.8,3.5124753468559518,1.737807448887532,0
rbt_605810,2.6874028758530226,76.65,3.506070288131797,1.647872506915129,0
smt_37837,7.578825499766462,216.3,3.5038490521342864,2.0203599728220456,0
smt_37841,7.5784797427019095,216.3,3.503689201434077,2.0203055507627146,0
rbt_605864,3.157914600962755,90.3,3.4971368781425856,1.6448105354253755,0
rbt_609682,2.6621861919199272,76.65,3.473171809419344,1.633945128808319,0
rbt_622703,2.136180547020699,61.95,3.4482333285241307,2.612110667429203,0
rbt_605835,3.1124518042084555,90.3,3.446790480851003,1.6226927103477118,0
sbt_14006,5.634806110765275,163.8,3.440052570674771,1.6177148559336916,0
sbt_27416,7.336693712684673,216.3,3.391906478356298,1.5951425232584164,0
sbt_15213,7.336693661977746,216.3,3.3919064549134283,1.5951425123079446,0
rbt_606128,2.585832833596638,76.65,3.3735588174776745,1.5854251865370383,0
sbt_37537,7.277445016286225,216.3,3.3645145706362576,1.3106607049237993,0
sbt_37545,7.277436371777435,216.3,3.3645105740996004,1.3106612947059784,0
sbt_37546,7.277419653864998,216.3,3.364502845060101,1.3106602086430257,0
sbt_37539,7.2696380517785855,216.3,3.360905248163932,1.8288456808063032,0
sbt_37538,7.269632523409371,216.3,3.360902692283574,1.8288462045508649,0
rbt_1607257,3.018867525873365,90.3,3.3431534062827963,1.5715012490637135,0
rbt_607385,3.0129443816685417,90.3,3.336593999632936,1.5693467023109908,0
rbt_3405845,3.003232280079997,90.3,3.3258386268881472,1.5655815728350866,0
rbt_633056,2.99924162254552,90.3,3.3214192940703438,1.5616140140807886,0
rbt_606141,2.9959634471865915,90.3,3.317788978058241,1.5618550475526984,0
rbt_623015,2.987994811737589,90.3,3.308964354083709,2.5063194750643603,0
sbt_34389,4.219892087413295,128.1,3.2942170861930484,2.5348798990054635,0
smt_25186,5.382864964962597,163.8,3.286242347352012,1.795166318939171,0
smt_37855,7.028043549117828,216.3,3.249211072176527,1.7465200158670857,0
smt_37854,7.027684917693501,216.3,3.2490452693913547,1.7465065539622475,0
smt_37853,7.027354905136351,216.3,3.248892697705201,1.7464983349348555,0
smt_37852,7.027016178671792,216.3,3.2487360973979618,1.7464869370238911,0
smt_37851,7.026697147036231,216.3,3.2485886024208184,1.7464799821425545,0
smt_37850,7.026365317620694,216.3,3.24843519076315,1.7464713402054806,0
smt_37849,7.02603485252558,216.3,3.24828240985926,1.746464496284889,0
smt_37848,7.025692593395368,216.3,3.248124176327031,1.7464561330313615,0
smt_37847,7.0253516321117075,216.3,3.2479665428163234,1.7464364801197212,0
smt_37846,7.025111994142721,216.3,3.2478557531866485,1.7464412105337515,0
smt_37845,7.024784907557478,216.3,3.247704534238316,1.7464365747888728,0
smt_38000,7.024436275330545,216.3,3.247543354290589,1.746422958173093,0
smt_38002,7.024141029834153,216.3,3.247406856141541,1.746382896844464,0
smt_38001,7.024133372754017,216.3,3.2474033161137386,1.746383359482427,0
smt_37843,7.0241217527478135,216.3,3.2473979439425857,1.746419660247464,0
smt_37842,7.023800222076226,216.3,3.2472492936089807,1.7463949393247507,0
smt_37838,7.023634055717743,216.3,3.247172471436774,1.7464037186464683,0
rbt_605982,2.9272632631206834,90.3,3.241709040000757,1.5251879618576492,0
rbt_1606000,2.925980098323786,90.3,3.240288038010837,1.5234209672364376,0
rbt_1629639,2.913129298821547,90.3,3.226056809326187,1.5157117995352296,0
sbt_3952,5.267237424487338,163.8,3.215651663301183,1.5133179897090725,0
sbt_4120,5.267236008085128,163.8,3.215650798586769,1.513317071842981,0
sbt_20855,5.267234627162514,163.8,3.21564995553267,1.513316183954186,0
sbt_20854,5.2672333155049404,163.8,3.2156491547649204,1.5133153467309552,0
rbt_635963,1.9909165730625906,61.95,3.2137474948548674,1.509537868257181,0
rbt_626481,2.8634950974267355,90.3,3.1710909163086773,1.4905708507105861,0
rbt_1607306,2.4147048984719945,76.65,3.1502999327749435,1.4812669231428313,0
rbt_605901,2.835559801867658,90.3,3.1401548193440285,1.4755143971947966,0
rbt_605820,2.403019509953789,76.65,3.135054807506574,1.4745418713432785,0
rbt_3405847,2.8294835235518416,90.3,3.133425828961065,1.4748901415482303,0
sbt_34000,6.735972665580641,216.3,3.1141806128435694,1.4637890196481977,0
rbt_1607289,2.3869402624840226,76.65,3.114077315699964,1.4634033188144127,0
sbt_20828,5.0542059637472025,163.8,3.0855958264634933,1.4503113490893513,0
rbt_1609690,2.744645701543278,90.3,3.039474752539621,1.428164359558168,0
smt_6512,8.661535966129385,286.65,3.0216417115399916,1.8036892162209288,0
smt_6425,8.661149125077014,286.65,3.021506759140769,1.8036127753314322,0
smt_6930,8.66055654350384,286.65,3.0213000326195156,1.8034948003813795,0
sbt_34382,3.8643578811433437,128.1,3.016672819003391,1.4176448697119832,0
rbt_1625170,2.7223291326225114,90.3,3.014760944210976,1.4166535377742175,0
smt_15243,4.935455848118224,163.8,3.0130988083749837,1.7684935669039479,0
smt_26472,4.935023636997554,163.8,3.0128349432219497,1.768431624935811,0
smt_14780,4.934533883859299,163.8,3.01253594863205,1.7683579515128969,0
smt_14754,4.934045306774579,163.8,3.012237672023552,1.7682851871797147,0
smt_14729,4.933559293218635,163.8,3.011940960450937,1.7730264246590999,0
smt_21229,4.93306604573887,163.8,3.011639832563412,1.77295389462135,0
smt_26474,4.932601362224042,163.8,3.0113561429939204,1.7728844033521873,0
smt_22453,4.9321916062027515,163.8,3.0111059866927663,1.7728326071937397,0
smt_14544,4.931699534007145,163.8,3.0108055763169386,1.772764461326535,0
smt_14113,4.931208210201295,163.8,3.0105056228335134,1.7727006785305974,0
smt_22508,4.930669327530282,163.8,3.0101766346338716,1.7726235124441079,0
smt_14452,4.930194372290352,163.8,3.0098866741699335,1.7725547957198948,0
smt_30311,4.929795904695069,163.8,3.0096434094597484,1.7725091481880622,0
smt_26478,4.9293046279166,163.8,3.0093434846865685,1.7724389450802474,0
rbt_605821,3.8492343259491895,128.1,3.004866764987658,1.4118316882821629,0
sbt_35105,3.840621238641511,128.1,2.998143043435996,1.40922205232414,0
smt_37856,6.484585692584063,216.3,2.9979591736403433,1.6411959610223412,0
rbt_605988,2.6871019881326204,90.3,2.9757497100029022,1.4004819004114941,0
smt_22686,8.473570866153,286.65,2.9560686782323398,1.8504404042876892,0
smt_6239,8.47311606965907,286.65,2.955910019068227,1.850347025036687,0
smt_23961,8.472672157059367,286.65,2.955755156832154,1.8502560679221922,0
smt_29407,8.472220605180233,286.65,2.9555976295762196,1.850163585506922,0
smt_6278,8.471816188140957,286.65,2.9554565456622917,1.8500811255962273,0
smt_6630,8.471344678318392,286.65,2.9552920559282723,1.8499849827450754,0
smt_19070,8.470870938952773,286.65,2.955126788401456,1.8498885520403678,0
smt_6639,8.470397496308854,286.65,2.9549616243882277,1.8497922703265754,0
smt_19117,8.469955578354616,286.65,2.9548074579991686,1.8497025499438917,0
smt_21514,8.465416788571103,286.65,2.9532240671798724,1.8442763649364424,0
smt_5615,8.46495898046538,286.65,2.9530643573924227,1.8441805106422606,0
smt_18742,8.464602456310654,286.65,2.9529399812700694,1.8441061255171178,0
smt_6270,8.46404253550973,286.65,2.9527446487039004,1.8439892396695916,0
smt_5967,8.463607053724452,286.65,2.952592727620601,1.8438986181361656,0
smt_5772,8.463093354349148,286.65,2.952413519745037,1.843791831262817,0
smt_6158,8.462585312034316,286.65,2.9522362853773996,1.8436863490252164,0
smt_6263,8.462145340183403,286.65,2.9520827979010655,1.8435953374590968,0
smt_6384,8.461599721690432,286.65,2.951892454802174,1.8434825210662444,0
smt_22684,8.46106587043796,286.65,2.951706216793288,1.8433722315934318,0
smt_22685,8.460630302863803,286.65,2.951554265781896,1.8432825433048612,0
smt_29447,8.460173653773008,286.65,2.951394960325487,1.8431886914570133,0
smt_19065,8.45968446653696,286.65,2.9512243036933405,1.8430883959444315,0
smt_24385,8.45913173598849,286.65,2.9510314795006076,1.8429751614300696,0
smt_29448,8.457444819434253,286.65,2.950442986022764,1.830598351876036,0
smt_6824,8.456998497203644,286.65,2.9502872831688975,1.8305024770639509,0
smt_6855,8.456519932108773,286.65,2.9501203321502785,1.830399840356576,0
smt_19062,8.45596107132381,286.65,2.9499253693786183,1.8302801983733001,0
smt_7054,8.455516872083967,286.65,2.9497704071459854,1.8301852692895064,0
smt_6446,8.455063028415882,286.65,2.9496120803823067,1.8300884312821901,0
smt_39006,8.454598047189455,286.65,2.949449868197961,1.829989376523603,0
smt_39008,8.454177891958002,286.65,2.9493032938977857,1.8299000102453358,0
smt_39007,8.454160183308804,286.65,2.949297116102845,1.8298962463904471,0
smt_6122,8.453756973441267,286.65,2.949156453319821,1.82981061441357,0
smt_18741,8.453248157573093,286.65,2.9489789490923055,1.8297027381470967,0
smt_5938,8.452776762511466,286.65,2.9488144993934995,1.829603019274041,0
smt_5946,8.452232434076683,286.65,2.948624606341072,1.8294880671094622,0
rbt_605804,1.8217421017734423,61.95,2.940665216744862,1.3819958132025187,0
smt_856,4.810231395440648,163.8,2.936649203565719,1.7315653964998605,0
smt_15622,4.8096918017442585,163.8,2.936319781284651,1.7314720898798954,0
smt_23196,4.809391961375459,163.8,2.936136728556446,1.7314316129364735,0
smt_15581,4.809070554576188,163.8,2.935940509509272,1.7313888759891973,0
smt_15568,4.808722688259445,163.8,2.935728136910528,1.7313402109266949,0
sbt_6048,4.762435816435866,163.8,2.9074699734040697,1.3682508211036488,0
rbt_605829,2.6191513465429876,90.3,2.9004998300586795,1.3635818278005567,0
sbt_15045,6.258724829063076,216.3,2.8935389870841774,1.3610613998291832,0
smt_23147,4.700970174457435,163.8,2.869945161451425,1.7037325662480598,0
smt_16038,4.700662520469245,163.8,2.8697573385038124,1.7037339321904155,0
rbt_1607316,2.590127966729421,90.3,2.8683587671422157,2.1735242553784864,0
rbt_1107342,1.77669772533818,61.95,2.8679543588994028,1.3484854090913718,0
smt_37925,6.198916259110962,216.3,2.8658882381465376,1.576541995280052,0
smt_37924,6.198755558968492,216.3,2.8658139431199685,1.5765647251492567,0
smt_37923,6.1984117022704694,216.3,2.86565497099883,1.576562516280186,0
smt_37864,6.19807280384051,216.3,2.8654982911884006,1.576538006098369,0
smt_37863,6.197912269806283,216.3,2.865424072957135,1.576537433595463,0
smt_37862,6.197751920451187,216.3,2.8653499401068823,1.5765506391866364,0
smt_37861,6.197487095525034,216.3,2.8652275060217445,1.5765573872633343,0
smt_37860,6.197166548720166,216.3,2.8650793105502386,1.5765592560859691,0
smt_37859,6.1968285965255605,216.3,2.8649230682041424,1.5765476218548204,0
smt_37858,6.196576833597141,216.3,2.8648066729529083,1.5765605206241124,0
smt_37831,6.19622877534272,216.3,2.8646457583646416,1.5765363931590326,0
smt_37898,6.18030671992842,216.3,2.8572846601610817,1.568536843059718,0
smt_37897,6.179922063880873,216.3,2.8571068256499648,1.568515621294279,0
smt_37896,6.179587898589222,216.3,2.856952334068064,1.568504249336635,0
smt_37895,6.179229516898028,216.3,2.8567866467397263,1.5684891729280082,0
smt_37894,6.178876921004302,216.3,2.856623634306196,1.5684732633612868,0
smt_37893,6.178543478477351,216.3,2.8564694768734866,1.5684618125384506,0
smt_37892,6.17819547012769,216.3,2.8563085853572305,1.5684473242276011,0
smt_37891,6.177859857667629,216.3,2.8561534247191998,1.568437048297742,0
smt_37890,6.177503033192767,216.3,2.8559884573244414,1.5684371702172852,0
smt_37889,6.177020979322318,216.3,2.8557655937689863,1.568395053881929,0
smt_37888,6.176778769451302,216.3,2.855653615095378,1.568385579676269,0
smt_37887,6.176546913188797,216.3,2.8555464231108627,1.56839112531344,0
smt_37886,6.176188165289109,216.3,2.855380566476703,1.5683778488006783,0
smt_37885,6.1758425616666495,216.3,2.855220786715973,1.5683670713041378,0
smt_37884,6.1754934842120415,216.3,2.8550594009302084,1.56835622807269,0
smt_37883,6.175143292224,216.3,2.8548974998723993,1.5683466673017918,0
smt_37882,6.1747826390223315,216.3,2.854730762377407,1.5683346604801622,0
smt_37881,6.174433981677916,216.3,2.854569570817344,1.5683251833966925,0
smt_37880,6.174080184280617,216.3,2.85440600290366,1.568312951255496,0
smt_37879,6.173747639196484,216.3,2.8542522603774776,1.5683077246760515,0
smt_37878,6.17338103493718,216.3,2.854082771584457,1.5682956944394704,0
smt_37877,6.1730362448293965,216.3,2.853923367928523,1.568288390280987,0
smt_37876,6.172678869325195,216.3,2.8537581457814123,1.5682798496414732,0
smt_37875,6.1723199156442,216.3,2.8535921940102638,1.5682715703024328,0
smt_37874,6.171959593491466,216.3,2.853425609566096,1.568262231522584,0
smt_37873,6.171609680440342,216.3,2.8532638374666397,1.5682517231748256,0
smt_37945,6.171284896607138,216.3,2.853113683128589,1.5682340867883549,0
smt_37944,6.171053396372279,216.3,2.853006655743078,1.5682339698812966,0
smt_37943,6.170782368028079,216.3,2.8528813536884323,1.568234222224415,0
smt_37942,6.170463654584459,216.3,2.8527340058180575,1.5682278904034839,0
smt_37941,6.170147672137077,216.3,2.852587920544187,1.568221832737416,0
smt_37940,6.169834659177257,216.3,2.8524432081263322,1.5682172112032777,0
smt_37939,6.169515092070154,216.3,2.85229546558953,1.5682127606012923,0
smt_37938,6.1691888242083195,216.3,2.8521446251541005,1.5682081235348635,0
smt_37937,6.1688587958374175,216.3,2.8519920461569197,1.5682025621061892,0
smt_37936,6.168534470762926,216.3,2.851842103912587,1.5681980584652082,0
smt_37935,6.168210038644933,216.3,2.8516921121798116,1.568190008087629,0
smt_37934,6.167916613324713,216.3,2.8515564555361594,1.5681897334883264,0
smt_37933,6.167595992535048,216.3,2.851408225859939,1.568186262647398,0
smt_37932,6.167273602275872,216.3,2.8512591781210688,1.5681828300767344,0
smt_13546,4.653645425727588,163.8,2.841053373460066,1.6860771840526827,0
smt_21225,4.653356416330868,163.8,2.840876933046928,1.6860453660468915,0
smt_13930,4.652836583813864,163.8,2.840559574977939,1.685962270115481,0
smt_21226,4.652320662441993,163.8,2.8402446046654415,1.6858730649703535,0
smt_13280,4.651926050053144,163.8,2.840003693561138,1.6858103784805338,0
smt_14437,4.65155046849452,163.8,2.8397744007903047,1.685752727122127,0
smt_13955,4.651171867184711,163.8,2.8395432644595306,1.6856953355259134,0
smt_26469,4.650788394852068,163.8,2.8393091543663416,1.6856340687785674,0
smt_20808,4.650453329849558,163.8,2.839104596977752,1.6855850932231524,0
smt_23095,4.650102541710166,163.8,2.838890440604497,1.685520681140411,0
smt_20807,4.649925670665451,163.8,2.8387824607237184,1.685508777158514,0
smt_13717,4.649552835117813,163.8,2.838554844394269,1.685448881515368,0
sbt_22669,6.104683978869997,216.3,2.8223226901849268,1.3268867038876502,0
rbt_3405987,1.747945408418275,61.95,2.821542225049677,1.328299220397599,0
smt_37986,6.100765880039873,216.3,2.820511271400773,1.5895134059134952,0
smt_37987,6.100517546122738,216.3,2.8203964614529533,1.5894966528742278,0
smt_37993,6.100200303358137,216.3,2.820249793508154,1.5894598760161156,0
smt_37920,6.100041704449778,216.3,2.8201764699259257,1.5894609736564955,0
smt_37919,6.0996567682918545,216.3,2.819998505913941,1.5894285585277157,0
smt_37918,6.099278946296692,216.3,2.819823830927735,1.589396436186964,0
smt_37917,6.098917556841629,216.3,2.8196567530474472,1.5893677299403173,0
smt_37916,6.098545247547162,216.3,2.819484626697717,1.589337389048727,0
smt_37915,6.0981780422393514,216.3,2.8193148600274394,1.5893018150495761,0
smt_37914,6.09790528568294,216.3,2.8191887589842537,1.5892858451750786,0
smt_37913,6.097548220742318,216.3,2.8190236804171604,1.589259110408615,0
smt_37912,6.097172517508761,216.3,2.818849984978623,1.5892291647052608,0
smt_40685,6.09680869083631,216.3,2.8186817803219184,1.5891998294991592,0
smt_37911,6.096464105163443,216.3,2.81852247118051,1.5891514210564661,0
smt_37910,6.096443906997951,216.3,2.8185131331474578,1.5891739507410183,0
smt_37909,6.096074134838304,216.3,2.8183421797680555,1.5891456661574084,0
smt_37908,6.095711693365143,216.3,2.818174615517865,1.5891198942843106,0
smt_14797,4.616048942430966,163.8,2.818100697454802,1.6685109289928173,0
smt_40683,6.095332749906521,216.3,2.817999422055719,1.5890901694065922,0
smt_23041,4.615669113371063,163.8,2.8178688115818455,1.6684497889741496,0
smt_37906,6.094980560947801,216.3,2.817836597756727,1.5890654834944529,0
smt_37905,6.0946156714114315,216.3,2.817667901715872,1.5890374594906278,0
smt_14823,4.615284283548831,163.8,2.8176338727404335,1.6683884157203916,0
smt_37904,6.094276013372608,216.3,2.817510870722426,1.589013388280908,0
smt_13752,4.614893973654228,163.8,2.817395588311494,1.6683015073165264,0
smt_37903,6.093935379044622,216.3,2.817353388370144,1.588983423359626,0
smt_23225,4.603223308466698,163.8,2.810270640089559,1.6617602364550554,0
rbt_1132012,2.5375485712391486,90.3,2.810131308127518,1.3207407974687158,0
smt_21220,4.602791921143706,163.8,2.8100072778655103,1.6616867534477329,0
smt_14845,4.6023413634113375,163.8,2.8097322120948336,1.661610600593774,0
smt_26425,4.601875033979848,163.8,2.809447517692215,1.6615315189305633,0
smt_20810,4.601411778295517,163.8,2.809164699814113,1.6614495375376217,0
smt_26429,4.601021761466321,163.8,2.8089265943017834,1.6613847179144905,0
smt_26430,4.600635029175228,163.8,2.8086904940019704,1.6613210926269018,0
rbt_1607268,2.151504506064385,76.65,2.8069204253938485,1.3190864852745365,0
smt_21222,4.588451044643838,163.8,2.8012521640072268,1.6554825225886522,0
smt_14301,4.5881345677257,163.8,2.8010589546554945,1.6554283827989342,0
smt_23277,4.5877348116512255,163.8,2.8008149033279763,1.6553539153192458,0
smt_26427,4.5873588849380695,163.8,2.800585399840091,1.6552867105603106,0
smt_20812,4.586962781878988,163.8,2.8003435786807005,1.6552154286338976,0
smt_15154,4.586565901482587,163.8,2.800101282956402,1.6551433420764647,0
smt_14674,4.5861917045164,163.8,2.7998728354800977,1.6550812645811324,0
sbt_35588,6.055860055376455,216.3,2.799750372342328,1.3157703324824028,0
rbt_605823,2.5259811029701495,90.3,2.7973212657476743,1.3154711107427801,0
smt_37963,6.048291730202298,216.3,2.796251377809661,1.5665735628115751,0
smt_37983,6.0478193387238735,216.3,2.796032981379507,1.566530105191031,0
smt_37984,6.047339287387993,216.3,2.795811043637537,1.56648551300779,0
smt_37985,6.046867103376772,216.3,2.7955927431237964,1.566442114365768,0
smt_37947,6.046402678017812,216.3,2.7953780295967694,1.5663979526791056,0
smt_37948,6.045977919280303,216.3,2.7951816547759143,1.5663608297981002,0
sbt_21281,4.53440191242235,163.8,2.7682551357889804,1.3006630740184126,0
rbt_605989,2.468084253377431,90.3,2.733205153241895,1.2845814384896148,0
rbt_1121173,2.4637109664736125,90.3,2.7283620891180647,1.2833309388756478,0
rbt_605807,2.4573107189062635,90.3,2.721274328799849,1.2802982983100255,0
smt_29426,5.858318969486229,216.3,2.7084230094712107,1.4667434139715274,0
rbt_606130,2.069958299989964,76.65,2.7005326810045194,1.2689401798768865,0
sbt_3491,4.416405494000942,163.8,2.696218250305825,1.2673964404609481,0
rbt_637399,1.6604833848955531,61.95,2.6803605890162276,1.2595456720266374,0
sbt_21191,4.381023561194798,163.8,2.6746175587269825,1.2575202155318992,0
sbt_26310,4.323023240101868,163.8,2.639208327290518,1.2410312683017883,0
rbt_637705,2.3693890187015745,90.3,2.6239081048743906,1.9876310901456467,0
rbt_1105833,2.3621011345730727,90.3,2.615837358331199,1.22961925419629,0
rbt_1607276,2.3526304407931184,90.3,2.605349325352291,1.2242164931269237,0
smt_37960,5.600782084913686,216.3,2.5893583379166367,1.4879793238334231,0
smt_37962,5.60037542746581,216.3,2.5891703316994032,1.4879424575218854,0
smt_37981,5.582103412447144,216.3,2.580722798172512,1.463840916044119,0
smt_37951,5.581722829713924,216.3,2.58054684683954,1.4638030100066162,0
smt_37952,5.581341642057182,216.3,2.580370615837809,1.4637700228676314,0
smt_37953,5.580872471910592,216.3,2.5801537086965287,1.4637232695838074,0
smt_37954,5.580420571020086,216.3,2.579944785492411,1.4657711007283079,0
smt_37955,5.5799302587557085,216.3,2.5797181039092503,1.465721882279029,0
smt_37956,5.579536084135907,216.3,2.579535868763711,1.465692027184538,0
smt_37957,5.579069932232695,216.3,2.5793203570192764,1.4656517149386339,0
smt_37958,5.578606507580007,216.3,2.579106106139624,1.4656128913741948,0
smt_37959,5.578134320062857,216.3,2.578887804005019,1.4655727016547349,0
rbt_1607319,2.3156965359934,90.3,2.564447991133333,1.8216257255869135,0
rbt_622709,2.312949467826899,90.3,2.561405833695348,1.2042301624007774,0
rbt_1607328,2.3106714066697895,90.3,2.558883063864662,1.2032442872286648,0
rbt_607366,2.309548790123618,90.3,2.5576398561723344,1.2019333245585908,0
smt_37979,5.4625400792511005,216.3,2.525446176260333,1.452009957103017,0
smt_37980,5.4621356917242405,216.3,2.5252592194749144,1.4519517026983504,0
sbt_21953,4.120098129945033,163.8,2.515322423653866,1.183786876607919,0
sbt_21849,4.120098063576363,163.8,2.5153223831357527,1.1837868573188943,0
sbt_21968,4.120097983164233,163.8,2.515322334044098,1.1837868339966342,0
smt_6074,7.176801276089912,286.65,2.5036808917111153,1.4815554903286479,0
smt_6082,7.176331928820459,286.65,2.5035171563999508,1.4814746878021399,0
smt_6649,7.175869378677195,286.65,2.50335579231718,1.4813952221957294,0
smt_29408,7.175417132982928,286.65,2.503198023018639,1.481317942581785,0
smt_6422,7.174963928816726,286.65,2.503039919349983,1.4812407472623885,0
smt_22683,7.174508399087294,286.65,2.5028810043911722,1.4811633120680054,0
smt_22793,7.155836776369386,286.65,2.496367268923561,1.4678151748913404,0
smt_22790,7.1553622432922,286.65,2.496201724504518,1.467729547628443,0
smt_29449,7.154924915859501,286.65,2.496049159553289,1.468396789843389,0
smt_6370,7.154904157156624,286.65,2.4960419177242716,1.4676473465333808,0
smt_6401,7.154467622815068,286.65,2.495889629448829,1.4683167162064086,0
smt_29409,7.154443690490836,286.65,2.4958812804782267,1.4675652053844466,0
smt_21348,7.154007740118926,286.65,2.49572919592497,1.4682437214594861,0
smt_5650,7.153961278481331,286.65,2.495712987434618,1.467479000865713,0
smt_6094,7.15348502640113,286.65,2.4955468433284946,1.4673926803764596,0
smt_29477,7.1531193241922315,286.65,2.495419265373184,1.4673288681881926,0
smt_29450,7.152672399558296,286.65,2.4952633523664036,1.467250332769107,0
smt_6231,7.152181041913222,286.65,2.4950919385708086,1.4671630917113683,0
smt_6340,7.151720581507842,286.65,2.494931303508754,1.4670821943000405,0
smt_25183,5.382233559594998,216.3,2.4883187977785473,1.3591548293667808,0
smt_25117,5.381588851350363,216.3,2.4880207357144535,1.3588574708321517,0
smt_25116,5.380926151863339,216.3,2.487714355923874,1.3585521231336202,0
smt_25115,5.3804076760756745,216.3,2.4874746537566685,1.3583134474805478,0
smt_25114,5.379952652271707,216.3,2.4872642867645434,1.35810414025559,0
smt_25113,5.379421659205245,216.3,2.487018797598356,1.3578600761026374,0
smt_25112,5.378860782637474,216.3,2.4867594926664234,1.3576024972959282,0
smt_25111,5.378493336770955,216.3,2.486589614780839,1.3574338735139857,0
smt_25110,5.378227940958933,216.3,2.4864669167632605,1.3573121421805843,0
smt_25109,5.377527973569089,216.3,2.4861433072441463,1.3569913276977432,0
smt_25108,5.376995074741359,216.3,2.4858969370047888,1.356747324606695,0
smt_25107,5.376277215597108,216.3,2.4855650557545577,1.3564189602191723,0
smt_25106,5.375650478113431,216.3,2.485275301947957,1.3561325858544435,0
smt_25105,5.375009375522207,216.3,2.484978906852615,1.3558399467427078,0
smt_29427,5.374367990259281,216.3,2.484682381072252,1.355547482217702,0
smt_6407,5.37309854028072,216.3,2.4840954878782804,1.354969526833713,0
smt_22794,5.3724667457908835,216.3,2.48380339611229,1.3546823307801743,0
smt_6477,5.371769510699967,216.3,2.48348104979194,1.3543657340818378,0
smt_6641,5.370863751299965,216.3,2.483062298335629,1.3539549973212217,0
smt_6157,5.37022780002215,216.3,2.482768284799884,1.353666980862056,0
smt_6694,5.369509587026038,216.3,2.4824362399565594,1.3533420772378977,0
smt_6581,7.087780447148482,286.65,2.4726253086162506,1.4413809151844437,0
smt_6701,7.087317078107998,286.65,2.472463658855049,1.4413022520670404,0
smt_21959,7.086808226622542,286.65,2.4722861422021776,1.4412141933879778,0
rbt_1633892,2.2322952972962997,90.3,2.4720878153890364,1.1619063171227995,0
sbt_21137,4.047526679802785,163.8,2.471017509037109,1.1621573832633711,0
smt_19219,7.07754818344154,286.65,2.4690557067648844,1.4306106786004775,0
smt_5952,7.0770581677757916,286.65,2.4688847611288303,1.4305189082891656,0
smt_29478,7.076547162171709,286.65,2.468706492995538,1.4304226879949233,0
smt_22841,7.076096911399799,286.65,2.4685494196406066,1.4303389887494917,0
smt_6660,7.075610549535317,286.65,2.4683797486604977,1.4302482469683717,0
rbt_1134165,2.2265970897940086,90.3,2.465777508077529,1.160308106765241,0
rbt_1131858,2.2253139124375605,90.3,2.4643564921789154,1.1593007090992307,0
smt_22845,7.036157628492316,286.65,2.4546163015846214,1.4072502842361345,0
smt_18913,7.035589653289961,286.65,2.4544181591801713,1.407142966863968,0
smt_5786,7.035039172775376,286.65,2.4542261199286153,1.4070387622006912,0
smt_29479,7.034565271784026,286.65,2.454060796017452,1.4069499631854525,0
smt_19224,7.034078245281942,286.65,2.453890893173537,1.4068590581172515,0
rbt_1607353,2.206129014809544,90.3,2.443110758371588,1.1482476873065706,0
sbt_34390,3.9873707603688002,163.8,2.434292283497436,1.844031512757639,0
smt_37973,5.081067878469177,216.3,2.349083623887738,1.3775758174683768,0
smt_37991,5.080892789673502,216.3,2.3490026766867786,1.3775625753742797,0
smt_37974,5.0806460095245365,216.3,2.34888858507838,1.3775481996719998,0
smt_37990,5.080225317601902,216.3,2.3486940904308375,1.3775057855500321,0
smt_37975,5.079836274965019,216.3,2.348514227908007,1.3774704343804418,0
smt_37976,5.079415305721145,216.3,2.348319605049073,1.377430326852954,0
smt_37977,5.079000190574567,216.3,2.348127688661381,1.3773903828038463,0
smt_37978,5.078605170357665,216.3,2.347945062578671,1.377356458264522,0
sbt_20633,3.8179167754792025,163.8,2.3308405222705755,1.5383122957022637,0
smt_37970,5.036083939189843,216.3,2.328286610813612,1.3670881953344447,0
smt_37971,5.0355311693935905,216.3,2.3280310538111837,1.367019896175831,0
smt_37972,5.035245442830955,216.3,2.3278989564636867,1.3669997897708666,0
smt_37989,5.034837637919936,216.3,2.327710419750317,1.366996645488783,0
sbt_4619,4.991476153232096,216.3,2.3076635012631046,1.0847115723839507,0
smt_37964,4.928899944125267,216.3,2.278733215037109,1.3421846862154247,0
smt_37965,4.9274573038222425,216.3,2.2780662523450035,1.3420467098098783,0
smt_37994,4.927268978160568,216.3,2.2779791854648948,1.3420183467938935,0
smt_37995,4.9272645196549,216.3,2.2779771242047615,1.3420180653328089,0
smt_37996,4.927259158065795,216.3,2.277974645430326,1.342036509561592,0
smt_37966,4.92693290908377,216.3,2.2778238137234257,1.3420109302742638,0
smt_37967,4.9265340785346705,216.3,2.2776394260446926,1.341975413273891,0
smt_37968,4.926125146696825,216.3,2.277450368329554,1.3419383770844486,0
smt_37969,4.925723808139694,216.3,2.2772648211464146,1.3418972166318046,0
rbt_606110,1.3873114001940128,61.95,2.2394050043486886,1.05216372835891,0
rbt_1607284,2.0146281556002386,90.3,2.231038932004694,1.0488514540538245,0
rbt_1607302,1.3655303080956727,61.95,2.2042458564901897,1.0356108275196039,0
rbt_607382,1.9695755155545562,90.3,2.1811467503372715,1.0254549018565966,0
rbt_1607273,1.670757542320166,76.65,2.1797228210308752,1.0242329147299347,0
sbt_26614,3.531321528160778,162.75,2.169782813002014,1.6433793171407567,0
sbt_26512,3.5313199405762052,162.75,2.1697818375276223,1.6433783295713826,0
sbt_16246,3.5313193618399,162.75,2.169781481929278,1.6433779701586593,0
sbt_5828,3.5313166218029437,163.8,2.1558709534816507,1.6328418087887602,0
sbt_3790,3.5062106900440915,163.8,2.1405437668156844,1.0056186328396597,0
rbt_1137150,1.318153218857701,61.95,2.127769521965619,1.000286697144609,0
rbt_3405843,1.9159451597128114,90.3,2.121755437112748,0.9977337229615132,0
rbt_1607288,1.610432177276123,76.65,2.101020453067349,0.9875110635818921,0
rbt_605817,1.6020737843366537,76.65,2.0901158308371213,0.9824441443331514,0
smt_13591,3.4035851783782385,163.8,2.0778908292907436,1.0304578819789623,0
sbt_30492,2.5858304698310297,124.95,2.0694921727339173,0.9725698297379756,0
rbt_607387,1.8592381632063462,90.3,2.058956991369154,0.9676003031387569,0
sbt_21147,2.634296556280951,128.1,2.0564375927251763,0.9663444284246713,0
sbt_17923,2.6342910754186497,128.1,2.056433314144145,0.9663401101058202,0
rbt_626695,1.8511913266601145,90.3,2.050045765958045,1.5529591822218378,0
rbt_623432,1.8511047315817482,90.3,2.0499498688612934,0.9638776395294903,0
sbt_3473,3.3352224009440623,163.8,2.0361553119316618,0.9571300269343762,0
sbt_26790,4.392904124719678,216.3,2.0309311718537577,0.9549410593395619,0
smt_18691,5.798941152548534,286.65,2.0230040650788537,1.0631912316985712,0
smt_18692,5.798240316262743,286.65,2.02275957309009,1.0630111209672726,0
smt_22142,5.797615651875397,286.65,2.0225416542387573,1.0628510254463335,0
smt_29410,5.797048808080324,286.65,2.022343906534214,1.062706108422938,0
smt_4821,5.796508064764616,286.65,2.0221552641774347,1.062568183950718,0
smt_18693,5.795849609052056,286.65,2.021925556969146,1.062400658073944,0
smt_5832,5.795242894826736,286.65,2.021713900166313,1.0622467086398395,0
smt_18694,5.794607655083149,286.65,2.0214922920227276,1.0620859461200503,0
smt_5643,5.794047858759972,286.65,2.0212970028815533,1.0619446378269644,0
smt_29483,5.793491544791622,286.65,2.0211029285859485,1.0618045450364335,0
smt_6014,5.792940609273263,286.65,2.0209107306029175,1.0616661381704033,0
smt_18695,5.792305120705801,286.65,2.0206890356552596,1.0615069005746356,0
smt_29482,5.791740163929579,286.65,2.0204919462513797,1.0613657071319962,0
smt_6195,5.791148092979663,286.65,2.0202853978648747,1.061218112800396,0
smt_6105,5.79055396523302,286.65,2.0200781319494228,1.061070393161036,0
smt_19334,5.752153429936271,286.65,2.0066818175253,1.041472313999045,0
smt_19331,5.751533454787,286.65,2.0064655345497995,1.0412824108299061,0
smt_22269,5.750924600003599,286.65,2.006253130997244,1.0410962348417838,0
sbt_34896,4.294868354140692,216.3,1.985607191003556,0.9333687700923576,0
sbt_34381,3.207616450697087,163.8,1.958251801402373,0.9205563177514654,0
smt_29480,5.532057631924543,286.65,1.9298997494939973,1.063204661352651,0
smt_19271,5.530888327476746,286.65,1.9294918288772882,1.062953248229483,0
smt_5537,5.530424102509703,286.65,1.9293298805196941,1.0628538857624439,0
rbt_605808,1.7359645610821057,90.3,1.922441374398788,0.9032598569860565,0
smt_19274,5.509887135989221,286.65,1.9221654058919315,1.050279623866781,0
smt_4942,5.509341805563961,286.65,1.9219751632876196,1.0501611049987523,0
smt_18740,5.5088097040810045,286.65,1.9217895356989378,1.050045803413508,0
smt_5191,5.5082800566379735,286.65,1.9216047642204688,1.0499313701185236,0
smt_5198,5.507755409421201,286.65,1.9214217371083906,1.0498183490843027,0
smt_5549,5.507177181995325,286.65,1.921220018138959,1.0496941693989237,0
smt_19273,5.506585781934365,286.65,1.9210137037970925,1.0495675782616694,0
smt_5414,5.50608932288117,286.65,1.9208405103370556,1.0494616364631861,0
smt_5522,5.505537312643609,286.65,1.9206479374301797,1.049344191632094,0
rbt_1607326,1.7327961429617336,90.3,1.9189326057162055,0.9022171242365621,0
smt_40861,5.47959288602906,286.65,1.9115970298374536,1.0333273579300777,0
smt_40860,5.479236640652778,286.65,1.911472750969049,1.033249585156464,0
smt_40859,5.478862143538893,286.65,1.9113421048452446,1.033167993500048,0
smt_40858,5.478482446793322,286.65,1.9112096447909726,1.0330854426937275,0
smt_40375,3.1304572914988458,163.8,1.9111460876061328,0.9512574394901496,0
smt_40857,5.478016432445544,286.65,1.9110470721945032,1.0329843649712063,0
smt_40856,5.477546734739247,286.65,1.9108832146308203,1.0328827560888758,0
smt_40374,3.1299055383236123,163.8,1.9108092419558071,0.9509297141027542,0
smt_40855,5.47708833378058,286.65,1.9107232980221804,1.0327838508515952,0
smt_40854,5.476654832501586,286.65,1.9105720678533353,1.032690554707023,0
smt_40358,3.1293566555681847,163.8,1.9104741486985253,0.9506044374117723,0
smt_40853,5.476186802421838,286.65,1.9104087920536676,1.032590086317924,0
smt_40852,5.475716012483992,286.65,1.910244553456826,1.0324892973312954,0
smt_22899,5.4754937235282135,286.65,1.9101670062892775,1.025185682356289,0
smt_5757,5.475460493376003,286.65,1.9101554137017283,1.0254273284108355,0
smt_40357,3.128778772791893,163.8,1.9101213509108015,0.9502627810508341,0
smt_5956,5.474933089908105,286.65,1.9099714250507955,1.0250465808458507,0
smt_6028,5.4748766340101485,286.65,1.9099517299878421,1.025283401480251,0
smt_40356,3.128292071003473,163.8,1.9098242191718393,0.9499756779221799,0
smt_22898,5.474283571235275,286.65,1.9097448355957705,1.0251375984107882,0
smt_16985,5.473801232946087,286.65,1.9095765682700463,1.025019309276174,0
smt_40355,3.127736250237099,163.8,1.9094848902546393,0.9496485273382906,0
smt_6106,5.473245783737871,286.65,1.9093827956524934,1.024883416499559,0
smt_6021,5.472695589723785,286.65,1.9091908563487827,1.024749154530767,0
smt_40354,3.127171479774182,163.8,1.9091400975422355,0.9493169058855346,0
smt_6212,5.472160631408765,286.65,1.909004232132833,1.0246189407194732,0
smt_6044,5.471604811794173,286.65,1.9088103302962407,1.024483995065895,0
smt_40353,3.1266001524885154,163.8,1.9087913018855405,0.9489822564303615,0
smt_6029,5.471062906542526,286.65,1.908621282589404,1.02435276805615,0
smt_40352,3.1261232047443253,163.8,1.9085001249965354,0.9487035255143371,0
smt_19276,5.470521429882155,286.65,1.9084323843998452,1.0242219814999425,0
smt_40351,3.125671222643772,163.8,1.9082241896482124,0.9484399220989918,0
smt_22896,5.469903209773314,286.65,1.9082167136833468,1.0240730712675246,0
smt_6693,5.469485972429421,286.65,1.908071157310107,1.0239728212404877,0
smt_41231,5.469469059901537,286.65,1.9080652572480508,1.0239687618088773,0
smt_40350,3.1251188825568588,163.8,1.907886985687948,0.9481185019189214,0
...